Version 4
SHEET 1 2804 1624
WIRE 1536 1200 1440 1200
WIRE 1680 1200 1536 1200
WIRE 1728 1200 1680 1200
WIRE 1840 1200 1808 1200
WIRE 1904 1200 1840 1200
WIRE 2000 1200 1968 1200
WIRE 2080 1200 2000 1200
WIRE 2192 1200 2144 1200
WIRE 2288 1200 2192 1200
WIRE 2368 1200 2288 1200
WIRE 2448 1200 2368 1200
WIRE 1440 1216 1440 1200
WIRE 2448 1216 2448 1200
WIRE 2000 1232 2000 1200
WIRE 2288 1232 2288 1200
WIRE 2368 1232 2368 1200
WIRE 1536 1248 1536 1200
WIRE 2192 1248 2192 1200
WIRE 1680 1280 1680 1200
WIRE 1840 1280 1840 1200
WIRE 1440 1312 1440 1296
WIRE 2368 1312 2368 1296
WIRE 2448 1312 2448 1296
WIRE 2000 1328 2000 1312
WIRE 1536 1376 1536 1328
WIRE 1616 1376 1536 1376
WIRE 2192 1376 2192 1328
WIRE 2192 1376 1904 1376
WIRE 2288 1376 2288 1296
WIRE 2288 1376 2192 1376
WIRE 1536 1392 1536 1376
WIRE 2192 1392 2192 1376
WIRE 1536 1472 1536 1456
WIRE 1760 1488 1760 1472
WIRE 2192 1488 2192 1472
FLAG 1760 1488 0
FLAG 1440 1312 0
FLAG 2368 1312 0
FLAG 2192 1488 0
FLAG 2448 1312 0
FLAG 1536 1472 0
FLAG 2448 1200 OUT
FLAG 1440 1200 IN
FLAG 2000 1328 0
SYMBOL ind 1712 1216 R270
WINDOW 0 32 56 VTop 2
WINDOW 3 5 56 VBottom 2
SYMATTR InstName L1
SYMATTR Value 22µ
SYMATTR SpiceLine Ipk=0.5 Rser=0.81 Rpar=0 Cpar=0 mfg="Murata" pn="LQH32PN220MN0"
SYMBOL VOLTAGE 1440 1200 R0
WINDOW 123 0 0 Left 2
WINDOW 39 0 0 Left 2
SYMATTR InstName V1
SYMATTR Value 4
SYMBOL schottky 2080 1216 R270
WINDOW 0 32 32 VTop 2
WINDOW 3 0 32 VBottom 2
SYMATTR InstName D1
SYMATTR Value MBRS140
SYMBOL cap 2352 1232 R0
SYMATTR InstName C1
SYMATTR Value 1µ
SYMBOL res 2176 1232 R0
SYMATTR InstName R1
SYMATTR Value 39.2k
SYMBOL res 2176 1376 R0
SYMATTR InstName R2
SYMATTR Value 13k
SYMBOL cap 2272 1232 R0
SYMATTR InstName C2
SYMATTR Value 22p
SYMBOL res 2432 1200 R0
SYMATTR InstName Rload
SYMATTR Value 40
SYMBOL res 1520 1232 R0
SYMATTR InstName R3
SYMATTR Value 10K
SYMBOL cap 1520 1392 R0
SYMATTR InstName C3
SYMATTR Value .1µ
SYMBOL PowerProducts\\LT3460 1760 1376 R0
SYMATTR InstName U1
SYMBOL cap 1968 1184 R90
WINDOW 0 0 32 VBottom 2
WINDOW 3 32 32 VTop 2
SYMATTR InstName C4
SYMATTR Value 1µ
SYMATTR SpiceLine V=10 Irms=0 Rser=0.009 Lser=0 mfg="TDK" pn="C1608X5RIA105K" type="X5R"
SYMBOL ind 1984 1216 R0
SYMATTR InstName L2
SYMATTR Value 22µ
SYMATTR SpiceLine Ipk=0.5 Rser=0.81 Rpar=0 Cpar=0 mfg="Murata" pn="LQH32PN220MN0"
TEXT 2280 1416 Left 2 !.tran 2ms startup
